Results/base-future/powerflow/line_summaries.csv
,active_line_losses_mw,reactive_line_losses_mvar,apparent_line_losses_mva
0,0.0562265241854266,-0.4078059803188607,0.47931239375819545
1,0.047787345560355826,-0.4146540563937103,0.47296927793415655
2,0.0469925347689822,-0.4153348465020279,0.4723584024565961
3,0.045296218062883746,-0.4167924540721471,0.47121355646839
4,0.04391520142735626,-0.4179704567561763,0.47032415331887945
5,0.04232106806322246,-0.41927936112584097,0.469229674682971
6,0.0431603200303456,-0.418561082562019,0.4698954172385059
7,0.04729955167467162,-0.41519325730212986,0.47299206496756857
8,0.047401672497961025,-0.415141079406517,0.47310251938570813
9,0.04914075021382927,-0.41368377438486553,0.47442658327510484
10,0.058126274352478885,-0.4064041894098277,0.4810919116241889
11,0.06175074524501001,-0.40344313675156274,0.48369109717936265
12,0.06694472411423705,-0.39930879863158986,0.48770581296063553
13,0.06427603212447316,-0.4013829377273558,0.485555729362678
14,0.06603383576333466,-0.3999353839544819,0.486766879995293
15,0.06949607751340603,-0.3971987741594283,0.489532830978837
16,0.074896767878923,-0.39296100201578305,0.49404928389421654
17,0.08063406405907793,-0.3884926341461157,0.49858596994564014
18,0.07394497796512886,-0.39373552543993096,0.4930402204988091
19,0.07548339406221648,-0.3924800732528798,0.4942662355436246
20,0.07788083411687488,-0.39059747228159764,0.49618246888483897
21,0.07268357134881506,-0.394753031736123,0.4922603250180792
22,0.06447389536982087,-0.40123420083153777,0.48574572513914976
23,0.055322330189881266,-0.4086056010655342,0.47886669778401014
24,0.04978362742528871,-0.4131051139658951,0.4748278164616295
25,0.04596883916385848,-0.41619881259910924,0.47197202531750004
26,0.04075508173827361,-0.4205426508981872,0.4683058797431443
27,0.040817713538605666,-0.4204578384598414,0.46822072623600963
28,0.04456655330257751,-0.4173474772891448,0.47104429740251574
29,0.047383467399754776,-0.4150799938980687,0.4729947548051976
30,0.05781184707247379,-0.4065529270561829,0.4806880196758347
31,0.0680586731937862,-0.39832230287508485,0.4884875754504482
32,0.06606561551638239,-0.39988355576841,0.48686476060686984
33,0.0745438205067247,-0.3932697538471396,0.49377941873283787
34,0.0722898211920813,-0.39503920212210986,0.49177341296099597
35,0.072257313460656,-0.39507784361517717,0.491756177146969
36,0.07471521434399189,-0.393207343815056,0.49383728433359053
37,0.07632862873661499,-0.39191589153226025,0.4948922521251207
38,0.07428929061724315,-0.3935178448825028,0.4934858880312751
39,0.07733906799993788,-0.39101779290975675,0.495610396158711
40,0.08845391602347027,-0.38214501287110436,0.5043266022104181
41,0.09020743583361307,-0.3807354434921538,0.5055062411963716
42,0.08730449594044447,-0.38312470541270993,0.5032467165444307
43,0.08728330141840347,-0.38303699872188113,0.5028652349668464
44,0.09408382824778451,-0.37778652426915516,0.5086824932100068
45,0.08678016748498188,-0.3834235039198059,0.5025542174907159
46,0.07677602767187874,-0.39124741671326035,0.4945552075081856
47,0.0675962392251162,-0.39858005125124674,0.48754960631576855
48,0.061206634118320946,-0.40371854392738366,0.4828839037827171
49,0.054216303890039036,-0.4093477326937664,0.4775631842791177
50,0.054675355012125566,-0.4090205548284522,0.4779017785433788
51,0.05191511478240077,-0.4112602960942335,0.4759114178552756
52,0.05257672091644017,-0.410696592232634,0.47642902008482757
53,0.05507437839444,-0.40870618201880404,0.4782171452149929
54,0.06756558585319421,-0.398678948668913,0.4878538250206162
55,0.08281016930606304,-0.38660727501727093,0.4999561649301558
56,0.08002350845175776,-0.38887337242014275,0.4980435953968808
57,0.07813339181752796,-0.390391557676852,0.4966399298305312
58,0.07668204227138964,-0.3915553219188338,0.49527988621935526
59,0.07487929403568232,-0.39287069864825563,0.4936674786665533
60,0.07311248441165169,-0.39433420372796374,0.49258010454958495
61,0.06890978244534476,-0.397578218367095,0.4889681753628133
62,0.07114756507542518,-0.3958109573916523,0.4906138745311054
63,0.07995021370180519,-0.388926400931605,0.4976626737296785
64,0.08868504009782414,-0.3819990339216164,0.5042984289215563
65,0.09513926039269945,-0.3769902968510219,0.5095131628605921
66,0.09324444287117208,-0.37864537276610555,0.5080690789125218
67,0.08961104657711882,-0.3814197376913416,0.5051729371937725
68,0.09087727010277463,-0.3804210827040205,0.5061802484654679
69,0.08621316120547061,-0.38407023854160305,0.5023825734546685
70,0.07633850659292475,-0.39184540054587347,0.49470196304626135
71,0.06858161267438201,-0.39796128895366584,0.4885864615207353
72,0.06104305940939545,-0.4039072103524688,0.4826807742057707
73,0.05319576594333825,-0.41023655349045257,0.47677474227960426
74,0.0525821347395056,-0.41067664103067264,0.47623954276279895
75,0.049048513629793955,-0.41355389573083506,0.4735965088441883
76,0.050286615765160816,-0.41254916240440104,0.47442497269530637
77,0.055875392638456575,-0.408050203345482,0.47868161842828394
78,0.06788536821821611,-0.3985260551014972,0.48809590793217905
79,0.08527591775305865,-0.38480401771815687,0.5019377379112707
80,0.08426012541566111,-0.38553730103282186,0.5009578918803403
81,0.08192481779314932,-0.3874058734935046,0.4995807365797585
82,0.08642891063675612,-0.38396749202387176,0.503302731866182
83,0.08029390588830279,-0.388806686563694,0.4982744393097112
84,0.07678442707408933,-0.391462890850133,0.49521154261860084
85,0.07327810793534326,-0.3941745380713438,0.4925016750339551
86,0.07745771740332297,-0.3909207068861465,0.49583263764712776
87,0.08632770168578903,-0.3839985743997724,0.5029817703300913
88,0.09287332525530155,-0.37877994107767926,0.507942493787237
89,0.10387333134406744,-0.3703904191262939,0.5172228329493932
90,0.09609784134922117,-0.3763638657880805,0.5104974102429529
91,0.08794231399611047,-0.38261509570251767,0.5033796380104752
92,0.08896754944373608,-0.381813666171989,0.5042303304738622
93,0.08429565049549992,-0.3854917429910905,0.5004911676609817
94,0.07907437527553882,-0.38967199300396677,0.49643601906165885
95,0.06835208338726798,-0.3981508094591779,0.48812118980469327
96,0.059296502986666784,-0.4053834704317971,0.48131460886275323
97,0.054710727223215315,-0.4090490563469017,0.4779735079465544
98,0.051861701640325886,-0.4114063331726171,0.47578188167942487
99,0.04942776249965677,-0.4133872172236023,0.47399928621411463
100,0.04967778371209014,-0.41315030915611806,0.47416016292993257
101,0.056096575485811664,-0.4079944277313997,0.4790608264522285
102,0.06708062032382785,-0.39917528535140256,0.4874209017913735
103,0.08193068143480971,-0.38737007803114715,0.49899041248441717
104,0.08429765094914501,-0.38555997184237234,0.5010585147269998
105,0.07932250564202635,-0.3894743622133878,0.4973488681097355
106,0.07977555039934245,-0.38903973861897256,0.4977369460466054
107,0.08195567391304108,-0.387327490015007,0.4993426578598367
108,0.07690026348710488,-0.39126036001768644,0.4951351784792646
109,0.08170822436066892,-0.38755779136305735,0.49910135911974507
110,0.08753471759327174,-0.38292299189788487,0.5037336512762955
111,0.08838150924128255,-0.3822113392302764,0.5042436429904157
112,0.09819176679508812,-0.3746259374858066,0.5122376890452209
113,0.09872742027099332,-0.37419337037403916,0.5124024545073674
114,0.09343340542793604,-0.37824802758847736,0.507755973305494
115,0.0929753740691164,-0.3784998259489265,0.5071288028768596
116,0.0898053443177958,-0.38108162064639634,0.5046524125569433
117,0.08348528337403507,-0.3860952921404908,0.4998059876129626
118,0.08065047944773304,-0.3884072073089887,0.49788131781606504
119,0.07799658070062226,-0.39050798755031313,0.4958940824264293
120,0.06236201849904835,-0.402816935482044,0.4834039680598834
121,0.06043406225134576,-0.40449260773059187,0.48228542204279595
122,0.058520727524781935,-0.4059323936889352,0.48071124291596495
123,0.057720130933399304,-0.40661708433791244,0.4801988158710915
124,0.0566562507885607,-0.40747856968655244,0.47933392528591456
125,0.060368757394303016,-0.4045465636486526,0.4822389896069834
126,0.06539008866081844,-0.40050470206089356,0.48610381833557587
127,0.07069989920337523,-0.3963658941509776,0.49018256202711147
128,0.0738202322387389,-0.39384218489614703,0.49255196808405055
129,0.08043349963843548,-0.38863986263015116,0.49777796330313434
130,0.0923112835077392,-0.3793551527773016,0.5074521848589937
131,0.09617510775592493,-0.37618554373179436,0.5101202301146799
132,0.103087061123182,-0.3708882190444607,0.515954730100734
133,0.09658084421996979,-0.3759176159936235,0.5106025939452792
134,0.08730171756283613,-0.3830721869690367,0.5027276834565616
135,0.09660700472580411,-0.37592000502745593,0.5107732774903775
136,0.10252353427910935,-0.37124832702028887,0.5155325881319823
137,0.10533232862918386,-0.3690735369150574,0.5176683526868926
138,0.10411944279207559,-0.3699285800704139,0.5160843986323296
139,0.10125924417127505,-0.37209162724712586,0.513803340600808
140,0.09680010425928277,-0.37569829687648826,0.5105638928625623
141,0.0945834649048709,-0.37734722515522146,0.5085841488820172
142,0.09053030454751101,-0.3805196941801691,0.5054463796803537
143,0.084935081553621,-0.38493215875114645,0.5010617878963672
144,0.08252331770969795,-0.38688225239950963,0.4992585929980448
145,0.07679818269947446,-0.3913766289518621,0.4947829124056384
146,0.07618153949055892,-0.39189247808594224,0.49457120577131414
147,0.07027447911103948,-0.39647048059513423,0.4896350520479762
148,0.07247122011924441,-0.3947463372005468,0.4913715988626322
149,0.07614314890550893,-0.3919095745766402,0.49449318105220746
150,0.07784332776670531,-0.39049280421442767,0.49562208820220194
151,0.0836807530569085,-0.3859252278306344,0.5002406460380519
152,0.09305206749732614,-0.3786991858413206,0.5081013475304944
153,0.09839527260755088,-0.37445011882432644,0.5121627750570247
154,0.10881439981828753,-0.3664051675388261,0.5207529724927463
155,0.11007502046631093,-0.3653885778787406,0.5215089381135666
156,0.11254456598663613,-0.36354664988317104,0.5238281893636733
157,0.1157606153095994,-0.36107767558230636,0.526718415909171
158,0.11437090335052852,-0.3621468136725622,0.5256142536718243
159,0.11183991261933761,-0.3640323215866335,0.523274149771435
160,0.11195759373899432,-0.36390335801761264,0.5230100783382983
161,0.11505021710204938,-0.36159217443100883,0.5257915719191193
162,0.1133189530109598,-0.36278271807503615,0.5238214508626913
163,0.11170982910313729,-0.3641309655642062,0.5226817515726957
164,0.11352369575603319,-0.36285178010268415,0.5247686571174615
165,0.1013530647508477,-0.37228961339522787,0.514750614759144
166,0.08682418816041935,-0.3835212597846444,0.50265444083924
167,0.07613886164045687,-0.39188993486878204,0.4941508225080153
168,0.06957125178858672,-0.39721189781051064,0.48947073725900614
169,0.06314639278951001,-0.4023507023341605,0.48456387754253283
170,0.061536755639843635,-0.4036359409445621,0.4834005427311485
171,0.06086752082388796,-0.40412485435314166,0.4827863918409754
172,0.059577984662845196,-0.40508787999391366,0.48153522069241517
173,0.06379583738657343,-0.4018209704963444,0.4850473590320508
174,0.07634711891095375,-0.3918607035382101,0.4949975490872113
175,0.09349142478075914,-0.3784189297405067,0.5087328586032942
176,0.09819870881299184,-0.37476736407246464,0.512729798729213
177,0.09127349822881704,-0.38022700305800444,0.5071032961160816
178,0.09337332703431453,-0.3786944121955789,0.5088924689688076
179,0.0833771037751778,-0.38638053998428373,0.5003257102209301
180,0.07840043113261239,-0.3901748414332004,0.4964399478730786
181,0.07301808103421437,-0.3943860656742977,0.49236264161281384
182,0.07754925538469098,-0.3908139923122303,0.49574220658951057
183,0.08494368206273521,-0.3848979868685655,0.5013526887646382
184,0.10297454010051471,-0.37087822806489207,0.5161182953029738
185,0.10778758905527397,-0.36717778722913735,0.5200254194040485
186,0.10024939584819427,-0.3728752788983721,0.5130217025161514
187,0.10675636780189401,-0.367821230088143,0.5182343299572012
188,0.10403020096205515,-0.3699866752983724,0.5162655203272334
189,0.10490024444987174,-0.36926618885022894,0.5169742184741208
190,0.09536907159276449,-0.3767392372301946,0.5094489082711646
191,0.084418218326506,-0.38540068050880993,0.5008162745426259
192,0.07349877546289546,-0.39403815768400846,0.49234670975716627
193,0.07431647323867915,-0.3933614431280318,0.493218506820426
194,0.07329114981079382,-0.39423166248828456,0.49249170216596083
195,0.06669062747926521,-0.39940438263570555,0.48699433870704795
196,0.06623050435822427,-0.399817172496302,0.4867914229541669
197,0.07294920295891491,-0.39445817254426946,0.49203439761071116
198,0.08815467776332402,-0.3824573325420922,0.5041184870286968
199,0.10292300533943319,-0.37100690199284325,0.5163446981709644
...
